LTspice 24.1.10 for Windows
Circuit: C:\Users\ashok\git\razavi_cmos_analog\Project_2\Project_2.net
Start Time: Sat Dec 13 14:33:18 2025
solver = Normal
Maximum thread count: 8
tnom = 27
temp = 27
method = trap
Instance "Mb1": Length shorter than recommended for a level 1 MOSFET.
Instance "Mb1": Width narrower than recommended for a level 1 MOSFET.
Instance "Mb3_sink": Length shorter than recommended for a level 1 MOSFET.
Instance "Mb3_sink": Width narrower than recommended for a level 1 MOSFET.
Instance "M11": Length shorter than recommended for a level 1 MOSFET.
Instance "M1": Length shorter than recommended for a level 1 MOSFET.
Instance "M2": Length shorter than recommended for a level 1 MOSFET.
Instance "M10": Length shorter than recommended for a level 1 MOSFET.
Instance "M8": Length shorter than recommended for a level 1 MOSFET.
Instance "M7": Length shorter than recommended for a level 1 MOSFET.
Instance "M9": Length shorter than recommended for a level 1 MOSFET.
Instance "M3": Length shorter than recommended for a level 1 MOSFET.
Instance "M4": Length shorter than recommended for a level 1 MOSFET.
Instance "M5": Length shorter than recommended for a level 1 MOSFET.
Instance "M6": Length shorter than recommended for a level 1 MOSFET.
Instance "Mb2_src": Length shorter than recommended for a level 1 MOSFET.
Direct Newton iteration for .op point succeeded.
Total elapsed time: 0.147 seconds.

Files loaded:
C:\Users\ashok\git\razavi_cmos_analog\Project_2\Project_2.net
C:\Users\ashok\AppData\Local\LTspice\lib\cmp\standard.mos

